version 2
1
2
.dc VBT1 3 3 3{return}.kicad adjustpaths{return}.save all{return}.probe alli
0
